REMARK  Name = HOH
REMARK  0 active torsions:
REMARK  status: ('A' for Active; 'I' for Inactive)
REMARK                            x       y       z     vdW  Elec       q    Type
REMARK                         _______ _______ _______ _____ _____    ______ ____
ROOT
ATOM      1  O   HOH     1       0.938  -0.074  -0.023  0.00  0.00    -0.410 OA
ATOM      2  H   HOH     0       0.660  -0.552  -0.819  0.00  0.00    +0.205 HD
ATOM      3  H   HOH     0       1.906  -0.097  -0.063  0.00  0.00    +0.205 HD
ENDROOT
TORSDOF 0
