
 OpenBabel05282508023D

 21 21  0  0  0  0  0  0  0  0999 V2000
    1.2690    1.6417   -0.4472 C   0  0  0  0  0  0  0  0  0  0  0  0
    2.5845    0.9236   -0.4796 C   0  0  0  0  0  0  0  0  0  0  0  0
    2.9971    0.2699   -1.4261 O   0  0  0  0  0  0  0  0  0  0  0  0
    3.2538    1.1431    0.7307 O   0  0  0  0  0  0  0  0  0  0  0  0
    4.6559    0.9694    0.7298 C   0  0  0  0  0  0  0  0  0  0  0  0
    5.3965    1.5276   -0.3241 C   0  0  0  0  0  0  0  0  0  0  0  0
    6.7849    1.4470   -0.3315 C   0  0  0  0  0  0  0  0  0  0  0  0
    7.4471    0.8371    0.7286 C   0  0  0  0  0  0  0  0  0  0  0  0
    6.7154    0.3112    1.7970 C   0  0  0  0  0  0  0  0  0  0  0  0
    5.3096    0.3729    1.8215 C   0  0  0  0  0  0  0  0  0  0  0  0
    4.6528   -0.2026    3.0341 C   0  0  0  0  0  0  0  0  0  0  0  0
    5.2872   -0.7401    3.9295 O   0  0  0  0  0  0  0  0  0  0  0  0
    3.3098   -0.0845    3.0953 O   0  0  0  0  0  0  0  0  0  0  0  0
    0.7981    1.5745   -1.4329 H   0  0  0  0  0  0  0  0  0  0  0  0
    1.4377    2.6999   -0.2272 H   0  0  0  0  0  0  0  0  0  0  0  0
    0.6105    1.1916    0.2969 H   0  0  0  0  0  0  0  0  0  0  0  0
    4.9036    2.0267   -1.1565 H   0  0  0  0  0  0  0  0  0  0  0  0
    7.3492    1.8638   -1.1623 H   0  0  0  0  0  0  0  0  0  0  0  0
    8.5317    0.7768    0.7302 H   0  0  0  0  0  0  0  0  0  0  0  0
    7.2588   -0.1461    2.6246 H   0  0  0  0  0  0  0  0  0  0  0  0
    2.9191    0.3851    2.3378 H   0  0  0  0  0  0  0  0  0  0  0  0
  1  2  1  0  0  0  0
  1 14  1  0  0  0  0
  1 15  1  0  0  0  0
  1 16  1  0  0  0  0
  2  3  2  0  0  0  0
  2  4  1  0  0  0  0
  4  5  1  0  0  0  0
  5  6  2  0  0  0  0
  5 10  1  0  0  0  0
  6  7  1  0  0  0  0
  6 17  1  0  0  0  0
  7  8  2  0  0  0  0
  7 18  1  0  0  0  0
  8  9  1  0  0  0  0
  8 19  1  0  0  0  0
  9 10  2  0  0  0  0
  9 20  1  0  0  0  0
 10 11  1  0  0  0  0
 11 12  2  0  0  0  0
 11 13  1  0  0  0  0
 13 21  1  0  0  0  0
M  END
