REMARK  Name = 
REMARK  4 active torsions:
REMARK  status: ('A' for Active; 'I' for Inactive)
REMARK    1  A    between atoms: N_3  and  C_4
REMARK    2  A    between atoms: N_10  and  C_11
REMARK    3  A    between atoms: C_14  and  S_17
REMARK    4  A    between atoms: S_17  and  N_20
REMARK                            x       y       z     vdW  Elec       q    Type
REMARK                         _______ _______ _______ _____ _____    ______ ____
ROOT
ATOM      1  O   UNL     1       0.973   0.054  -0.579  0.00  0.00    -0.252 OA
ATOM      2  C   UNL     1       2.148  -0.077  -0.255  0.00  0.00    +0.308 C 
ATOM      3  N   UNL     1       3.020   0.969   0.008  0.00  0.00    -0.269 N 
ATOM      4  N   UNL     1       2.775  -1.298  -0.057  0.00  0.00    -0.269 N 
ATOM      5  H   UNL     1       3.998   0.738   0.083  0.00  0.00    +0.156 HD
ATOM      6  H   UNL     1       3.686  -1.264   0.375  0.00  0.00    +0.156 HD
ENDROOT
BRANCH   3   7
ATOM      7  C   UNL     1       2.700   2.340   0.118  0.00  0.00    +0.035 A 
ATOM      8  C   UNL     1       1.406   2.852  -0.006  0.00  0.00    -0.040 A 
ATOM      9  C   UNL     1       1.164   4.222   0.142  0.00  0.00    -0.060 A 
ATOM     10  C   UNL     1       2.211   5.093   0.423  0.00  0.00    -0.062 A 
ATOM     11  C   UNL     1       3.505   4.595   0.555  0.00  0.00    -0.060 A 
ATOM     12  C   UNL     1       3.748   3.226   0.400  0.00  0.00    -0.040 A 
ATOM     13  H   UNL     1       0.554   2.214  -0.217  0.00  0.00    +0.064 HD
ATOM     14  H   UNL     1       0.150   4.600   0.039  0.00  0.00    +0.062 HD
ATOM     15  H   UNL     1       2.019   6.156   0.542  0.00  0.00    +0.062 HD
ATOM     16  H   UNL     1       4.324   5.272   0.782  0.00  0.00    +0.062 HD
ATOM     17  H   UNL     1       4.767   2.867   0.518  0.00  0.00    +0.064 HD
ENDBRANCH   3   7
BRANCH   4  18
ATOM     18  C   UNL     1       2.189  -2.578  -0.169  0.00  0.00    +0.035 A 
ATOM     19  C   UNL     1       0.943  -2.826  -0.754  0.00  0.00    -0.039 A 
ATOM     20  C   UNL     1       0.420  -4.124  -0.800  0.00  0.00    -0.034 A 
ATOM     21  C   UNL     1       1.158  -5.181  -0.263  0.00  0.00    +0.105 A 
ATOM     22  C   UNL     1       2.401  -4.948   0.326  0.00  0.00    -0.034 A 
ATOM     23  C   UNL     1       2.918  -3.652   0.361  0.00  0.00    -0.039 A 
ATOM     24  H   UNL     1       0.352  -2.028  -1.194  0.00  0.00    +0.064 HD
ATOM     25  H   UNL     1      -0.552  -4.299  -1.255  0.00  0.00    +0.064 HD
ATOM     26  H   UNL     1       2.974  -5.765   0.760  0.00  0.00    +0.064 HD
ATOM     27  H   UNL     1       3.888  -3.495   0.826  0.00  0.00    +0.064 HD
BRANCH  21  28
ATOM     28  S   UNL     1       0.534  -6.835  -0.336  0.00  0.00    +0.056 S 
ATOM     29  O   UNL     1       1.529  -7.740   0.192  0.00  0.00    -0.153 OA
ATOM     30  O   UNL     1      -0.838  -6.840   0.109  0.00  0.00    -0.153 OA
BRANCH  28  31
ATOM     31  N   UNL     1       0.506  -7.130  -1.988  0.00  0.00    -0.204 NA
ATOM     32  H   UNL     1       1.275  -7.748  -2.244  0.00  0.00    +0.144 HD
ATOM     33  H   UNL     1      -0.413  -7.487  -2.252  0.00  0.00    +0.144 HD
ENDBRANCH  28  31
ENDBRANCH  21  28
ENDBRANCH   4  18
TORSDOF 4
