REMARK  Name = 
REMARK  1 active torsions:
REMARK  status: ('A' for Active; 'I' for Inactive)
REMARK    1  A    between atoms: C_4  and  C_7
REMARK                            x       y       z     vdW  Elec       q    Type
REMARK                         _______ _______ _______ _____ _____    ______ ____
ROOT
ATOM      1  C   UNL     1      -0.414   1.247  -0.002  0.00  0.00    -0.062 A 
ATOM      2  C   UNL     1      -1.808   1.169   0.011  0.00  0.00    -0.061 A 
ATOM      3  C   UNL     1      -2.436  -0.076   0.012  0.00  0.00    -0.052 A 
ATOM      4  C   UNL     1      -1.665  -1.242  -0.002  0.00  0.00    +0.014 A 
ATOM      5  C   UNL     1      -0.269  -1.168  -0.012  0.00  0.00    -0.052 A 
ATOM      6  C   UNL     1       0.354   0.082  -0.011  0.00  0.00    -0.061 A 
ATOM      7  H   UNL     1       0.073   2.219  -0.006  0.00  0.00    +0.062 HD
ATOM      8  H   UNL     1      -2.405   2.078   0.018  0.00  0.00    +0.062 HD
ATOM      9  H   UNL     1      -3.523  -0.136   0.023  0.00  0.00    +0.062 HD
ATOM     10  H   UNL     1       0.340  -2.067  -0.021  0.00  0.00    +0.062 HD
ATOM     11  H   UNL     1       1.440   0.149  -0.019  0.00  0.00    +0.062 HD
ENDROOT
BRANCH   4  12
ATOM     12  C   UNL     1      -2.321  -2.565  -0.010  0.00  0.00    +0.150 C 
ATOM     13  O   UNL     1      -3.539  -2.691  -0.006  0.00  0.00    -0.296 OA
ATOM     14  H   UNL     1      -1.654  -3.444  -0.021  0.00  0.00    +0.108 HD
ENDBRANCH   4  12
TORSDOF 1
