
     RDKit          3D

 24 25  0  0  0  0  0  0  0  0999 V2000
    3.1990   -0.8746    0.3809 C   0  0  0  0  0  0  0  0  0  0  0  0
    2.1376    0.1194    0.2589 N   0  0  0  0  0  0  0  0  0  0  0  0
    2.2734    1.4678    0.2975 C   0  0  0  0  0  0  0  0  0  0  0  0
    1.0939    2.1279    0.1597 N   0  0  0  0  0  0  0  0  0  0  0  0
    0.2018    1.1246    0.0328 C   0  0  0  0  0  0  0  0  0  0  0  0
    0.8190   -0.0772    0.0930 C   0  0  0  0  0  0  0  0  0  0  0  0
    0.0854   -1.2518   -0.0092 C   0  0  0  0  0  0  0  0  0  0  0  0
    0.6634   -2.3728    0.0243 O   0  0  0  0  0  0  0  0  0  0  0  0
   -1.2809   -1.1558   -0.1473 N   0  0  0  0  0  0  0  0  0  0  0  0
   -1.8879    0.0873   -0.2292 C   0  0  0  0  0  0  0  0  0  0  0  0
   -3.1400    0.1651   -0.3822 O   0  0  0  0  0  0  0  0  0  0  0  0
   -1.1418    1.2437   -0.1469 N   0  0  0  0  0  0  0  0  0  0  0  0
   -1.7832    2.5647   -0.1865 C   0  0  0  0  0  0  0  0  0  0  0  0
   -2.0926   -2.3775   -0.2791 C   0  0  0  0  0  0  0  0  0  0  0  0
    3.2342   -1.4996   -0.5359 H   0  0  0  0  0  0  0  0  0  0  0  0
    3.0078   -1.5203    1.2635 H   0  0  0  0  0  0  0  0  0  0  0  0
    4.1838   -0.3772    0.5103 H   0  0  0  0  0  0  0  0  0  0  0  0
    3.2224    1.9726    0.4247 H   0  0  0  0  0  0  0  0  0  0  0  0
   -2.2130    2.7991    0.8100 H   0  0  0  0  0  0  0  0  0  0  0  0
   -1.0591    3.3604   -0.4631 H   0  0  0  0  0  0  0  0  0  0  0  0
   -2.5923    2.5826   -0.9477 H   0  0  0  0  0  0  0  0  0  0  0  0
   -3.0963   -2.2417    0.1774 H   0  0  0  0  0  0  0  0  0  0  0  0
   -2.2111   -2.6310   -1.3535 H   0  0  0  0  0  0  0  0  0  0  0  0
   -1.6236   -3.2359    0.2474 H   0  0  0  0  0  0  0  0  0  0  0  0
  1  2  1  0
  2  3  1  0
  3  4  2  0
  4  5  1  0
  5  6  2  0
  6  7  1  0
  7  8  2  0
  7  9  1  0
  9 10  1  0
 10 11  2  0
 10 12  1  0
 12 13  1  0
  9 14  1  0
  6  2  1  0
 12  5  1  0
  1 15  1  0
  1 16  1  0
  1 17  1  0
  3 18  1  0
 13 19  1  0
 13 20  1  0
 13 21  1  0
 14 22  1  0
 14 23  1  0
 14 24  1  0
M  END
$$$$
