REMARK  Name = DHF
REMARK  11 active torsions:
REMARK  status: ('A' for Active; 'I' for Inactive)
REMARK    1  A    between atoms: C_9  and  C_13
REMARK    2  A    between atoms: C_13  and  N_14
REMARK    3  A    between atoms: N_14  and  C_18
REMARK    4  A    between atoms: C_15  and  C_21
REMARK    5  A    between atoms: N_23  and  CA_24
REMARK    6  A    between atoms: CA_24  and  CB_25
REMARK    7  A    between atoms: CA_24  and  C_30
REMARK    8  A    between atoms: CB_25  and  CG_26
REMARK    9  A    between atoms: CG_26  and  CD_27
REMARK   10  A    between atoms: CD_27  and  OE2_29
REMARK   11  A    between atoms: C_30  and  OXT_32
REMARK                            x       y       z     vdW  Elec       q    Type
REMARK                         _______ _______ _______ _____ _____    ______ ____
ROOT
ATOM      1  C   UNK A   0       4.030  -6.411   0.732  0.00  0.00    +0.037 A 
ATOM      2  C   UNK A   0       4.734  -5.515  -0.078  0.00  0.00    -0.048 A 
ATOM      3  C   UNK A   0       4.613  -4.128   0.144  0.00  0.00    -0.040 A 
ATOM      4  C   UNK A   0       3.761  -3.612   1.133  0.00  0.00    +0.027 A 
ATOM      5  C   UNK A   0       3.108  -4.528   1.964  0.00  0.00    -0.040 A 
ATOM      6  C   UNK A   0       3.233  -5.906   1.762  0.00  0.00    -0.048 A 
ATOM      7  H   UNK A   0       5.408  -5.864  -0.855  0.00  0.00    +0.063 HD
ATOM      8  H   UNK A   0       5.189  -3.439  -0.473  0.00  0.00    +0.064 HD
ATOM      9  H   UNK A   0       2.501  -4.206   2.804  0.00  0.00    +0.064 HD
ATOM     10  H   UNK A   0       2.711  -6.586   2.433  0.00  0.00    +0.063 HD
ENDROOT
BRANCH   1  11
ATOM     11  C   UNK A   0       4.130  -7.896   0.632  0.00  0.00    +0.245 C 
ATOM     12  O   UNK A   0       3.978  -8.574   1.644  0.00  0.00    -0.270 OA
ATOM     13  N   GLU A   1       4.363  -8.461  -0.601  0.00  0.00    -0.298 N 
ATOM     14  H   GLU A   1       4.569  -7.878  -1.406  0.00  0.00    +0.150 HD
BRANCH  13  15
ATOM     15  CA  GLU A   1       4.622  -9.902  -0.734  0.00  0.00    +0.121 C 
ATOM     16  HA  GLU A   1       5.423 -10.132  -0.020  0.00  0.00    +0.061 HD
BRANCH  15  17
ATOM     17  CB  GLU A   1       3.420 -10.807  -0.404  0.00  0.00    -0.014 C 
ATOM     18  HB1 GLU A   1       3.694 -11.853  -0.594  0.00  0.00    +0.029 HD
ATOM     19  HB2 GLU A   1       3.213 -10.759   0.672  0.00  0.00    +0.029 HD
BRANCH  17  20
ATOM     20  CG  GLU A   1       2.123 -10.493  -1.153  0.00  0.00    +0.047 C 
ATOM     21  HG1 GLU A   1       1.779  -9.486  -0.892  0.00  0.00    +0.038 HD
ATOM     22  HG2 GLU A   1       2.263 -10.552  -2.237  0.00  0.00    +0.038 HD
BRANCH  20  23
ATOM     23  CD  GLU A   1       1.047 -11.476  -0.770  0.00  0.00    +0.305 C 
ATOM     24  OE1 GLU A   1       1.201 -12.622  -0.376  0.00  0.00    -0.251 OA
BRANCH  23  25
ATOM     25  OE2 GLU A   1      -0.193 -10.987  -0.947  0.00  0.00    -0.481 OA
ATOM     26  HE2 GLU A   1      -0.780 -11.721  -0.663  0.00  0.00    +0.295 HD
ENDBRANCH  23  25
ENDBRANCH  20  23
ENDBRANCH  17  20
ENDBRANCH  15  17
BRANCH  15  27
ATOM     27  C   GLU A   1       5.211 -10.186  -2.118  0.00  0.00    +0.325 C 
ATOM     28  O   GLU A   1       5.519  -9.341  -2.948  0.00  0.00    -0.249 OA
BRANCH  27  29
ATOM     29  OXT GLU A   1       5.460 -11.490  -2.347  0.00  0.00    -0.479 OA
ATOM     30  HXT GLU A   1       5.901 -11.520  -3.222  0.00  0.00    +0.295 HD
ENDBRANCH  27  29
ENDBRANCH  15  27
ENDBRANCH  13  15
ENDBRANCH   1  11
BRANCH   4  31
ATOM     31  N   UNK A   0       3.714  -2.214   1.335  0.00  0.00    -0.338 N 
ATOM     32  H   UNK A   0       4.489  -1.957   1.956  0.00  0.00    +0.146 HD
BRANCH  31  33
ATOM     33  C   UNK A   0       2.456  -1.707   1.906  0.00  0.00    +0.049 C 
ATOM     34  H   UNK A   0       2.286  -2.101   2.914  0.00  0.00    +0.052 HD
ATOM     35  H   UNK A   0       1.612  -1.989   1.267  0.00  0.00    +0.052 HD
BRANCH  33  44
ATOM     36  N   UNK A   0       2.382   3.898   2.473  0.00  0.00    -0.314 N 
ATOM     37  C   UNK A   0       2.832   4.430   3.634  0.00  0.00    +0.195 A 
ATOM     38  N   UNK A   0       2.897   5.784   3.621  0.00  0.00    -0.329 N 
ATOM     39  N   UNK A   0       3.187   3.755   4.672  0.00  0.00    -0.176 NA
ATOM     40  C   UNK A   0       3.109   2.374   4.609  0.00  0.00    +0.302 A 
ATOM     41  O   UNK A   0       3.296   1.676   5.605  0.00  0.00    -0.263 OA
ATOM     42  C   UNK A   0       2.797   1.718   3.265  0.00  0.00    +0.168 A 
ATOM     43  N   UNK A   0       2.861   0.335   3.156  0.00  0.00    -0.245 NA
ATOM     44  C   UNK A   0       2.480  -0.191   2.025  0.00  0.00    +0.054 C 
ATOM     45  C   UNK A   0       1.993   0.596   0.811  0.00  0.00    +0.050 C 
ATOM     46  N   UNK A   0       2.147   2.034   1.004  0.00  0.00    -0.323 N 
ATOM     47  C   UNK A   0       2.438   2.548   2.254  0.00  0.00    +0.130 A 
ATOM     48  H   UNK A   0       2.441   4.468   1.643  0.00  0.00    +0.170 HD
ATOM     49  H   UNK A   0       2.098   6.248   3.208  0.00  0.00    +0.145 HD
ATOM     50  H   UNK A   0       3.085   6.143   4.554  0.00  0.00    +0.145 HD
ATOM     51  H   UNK A   0       0.935   0.359   0.655  0.00  0.00    +0.052 HD
ATOM     52  H   UNK A   0       2.557   0.282  -0.072  0.00  0.00    +0.052 HD
ATOM     53  H   UNK A   0       1.568   2.626   0.420  0.00  0.00    +0.148 HD
ENDBRANCH  33  44
ENDBRANCH  31  33
ENDBRANCH   4  31
TORSDOF 11
