
     RDKit          3D

 14 14  0  0  0  0  0  0  0  0999 V2000
   -1.9137    0.1593   -0.0912 C   0  0  0  0  0  0  0  0  0  0  0  0
   -1.3253   -1.0772    0.1869 C   0  0  0  0  0  0  0  0  0  0  0  0
    0.0670   -1.1927    0.2532 C   0  0  0  0  0  0  0  0  0  0  0  0
    0.8821   -0.0660    0.0405 C   0  0  0  0  0  0  0  0  0  0  0  0
    0.2817    1.1727   -0.2385 C   0  0  0  0  0  0  0  0  0  0  0  0
   -1.1110    1.2831   -0.3036 C   0  0  0  0  0  0  0  0  0  0  0  0
    2.3517   -0.1651    0.1056 C   0  0  0  0  0  0  0  0  0  0  0  0
    2.9195   -1.2619    0.3537 O   0  0  0  0  0  0  0  0  0  0  0  0
   -2.9914    0.2466   -0.1420 H   0  0  0  0  0  0  0  0  0  0  0  0
   -1.9482   -1.9469    0.3513 H   0  0  0  0  0  0  0  0  0  0  0  0
    0.5040   -2.1595    0.4699 H   0  0  0  0  0  0  0  0  0  0  0  0
    0.8901    2.0533   -0.4056 H   0  0  0  0  0  0  0  0  0  0  0  0
   -1.5679    2.2404   -0.5190 H   0  0  0  0  0  0  0  0  0  0  0  0
    2.9613    0.7140   -0.0612 H   0  0  0  0  0  0  0  0  0  0  0  0
  1  2  2  0
  2  3  1  0
  3  4  2  0
  4  5  1  0
  5  6  2  0
  4  7  1  0
  7  8  2  0
  6  1  1  0
  1  9  1  0
  2 10  1  0
  3 11  1  0
  5 12  1  0
  6 13  1  0
  7 14  1  0
M  END
$$$$
